Circuit: * Z:\home\dango\kicad\project\ZeroPCB\pcb\sim\ir_sensor.asc

Model "u1:pmos2": Oxide thickness thinner than recommended for a level 1 MOSFET.
Instance "m:u1:2": Length shorter than recommended for a level 1 MOSFET.
Model "u1:pmos1": Oxide thickness thinner than recommended for a level 1 MOSFET.
Instance "m:u1:1": Length shorter than recommended for a level 1 MOSFET.
Direct Newton iteration for .op point succeeded.
Ignoring empty pin current: Ix(u1:5)
Ignoring empty pin current: Ix(u1:5)

Date: Sat Oct 30 23:09:31 2021
Total elapsed time: 0.051 seconds.

tnom = 27
temp = 27
method = modified trap
totiter = 2205
traniter = 2162
tranpoints = 1082
accept = 1054
rejected = 28
matrix size = 21
fillins = 13
solver = Normal
Matrix Compiler1: 1.47 KB object code size  0.4/0.3/[0.2]
Matrix Compiler2: off  [0.3]/0.4/0.4

